AA 0 0 3
AB 0 1 3
AC 0 2 3
AD 0 3 3
AE 0 4 3
AF 0 5 3
AG 0 6 3
AH 0 7 3
AI 0 8 3
AJ 0 9 3
AK 0 10 3
AL 0 11 3
AM 0 12 3
AN 0 13 3
AO 0 14 3
AP 0 15 3
AQ 0 16 3
AR 0 17 3
AS 0 18 3
AT 0 19 3
AU 0 20 3
AV 0 21 3
AW 0 22 3
AX 0 23 3
AY 0 24 3
AZ 0 25 3
A[ 0 26 3
A\ 0 27 3
A] 0 28 3
A^ 0 29 3
A_ 0 30 3
A` 0 31 3
BA 1 0 3
BB 1 1 3
BC 1 2 3
BD 1 3 3
BE 1 4 3
BF 1 5 3
BG 1 6 3
BH 1 7 3
BI 1 8 3
BJ 1 9 3
BK 1 10 3
BL 1 11 3
BM 1 12 3
BN 1 13 3
BO 1 14 3
BP 1 15 3
BQ 1 16 3
BR 1 17 3
BS 1 18 3
BT 1 19 3
BU 1 20 3
BV 1 21 3
BW 1 22 3
BX 1 23 3
BY 1 24 3
BZ 1 25 3
B[ 1 26 3
B\ 1 27 3
B] 1 28 3
B^ 1 29 3
B_ 1 30 3
B` 1 31 3
CA 2 0 3
CB 2 1 3
CC 2 2 3
CD 2 3 3
CE 2 4 3
CF 2 5 3
CG 2 6 3
CH 2 7 3
CI 2 8 3
CJ 2 9 3
CK 2 10 3
CL 2 11 3
CM 2 12 3
CN 2 13 3
CO 2 14 3
CP 2 15 3
CQ 2 16 3
CR 2 17 3
CS 2 18 3
CT 2 19 3
CU 2 20 3
CV 2 21 3
CW 2 22 3
CX 2 23 3
CY 2 24 3
CZ 2 25 3
C[ 2 26 3
C\ 2 27 3
C] 2 28 3
C^ 2 29 3
C_ 2 30 3
C` 2 31 3
DA 3 0 3
DB 3 1 3
DC 3 2 3
DD 3 3 3
DE 3 4 3
DF 3 5 3
DG 3 6 3
DH 3 7 3
DI 3 8 3
DJ 3 9 3
DK 3 10 3
DL 3 11 3
DM 3 12 3
DN 3 13 3
DO 3 14 3
DP 3 15 3
DQ 3 16 3
DR 3 17 3
DS 3 18 3
DT 3 19 3
DU 3 20 3
DV 3 21 3
DW 3 22 3
DX 3 23 3
DY 3 24 3
DZ 3 25 3
D[ 3 26 3
D\ 3 27 3
D] 3 28 3
D^ 3 29 3
D_ 3 30 3
D` 3 31 3
EA 4 0 3
EB 4 1 3
EC 4 2 3
ED 4 3 3
EE 4 4 3
EF 4 5 3
EG 4 6 3
EH 4 7 3
EI 4 8 3
EJ 4 9 3
EK 4 10 3
EL 4 11 3
EM 4 12 3
EN 4 13 3
EO 4 14 3
EP 4 15 3
EQ 4 16 3
ER 4 17 3
ES 4 18 3
ET 4 19 3
EU 4 20 3
EV 4 21 3
EW 4 22 3
EX 4 23 3
EY 4 24 3
EZ 4 25 3
E[ 4 26 3
E\ 4 27 3
E] 4 28 3
E^ 4 29 3
E_ 4 30 3
E` 4 31 3
FA 5 0 3
FB 5 1 3
FC 5 2 3
FD 5 3 3
FE 5 4 3
FF 5 5 3
FG 5 6 3
FH 5 7 3
FI 5 8 3
FJ 5 9 3
FK 5 10 3
FL 5 11 3
FM 5 12 3
FN 5 13 3
FO 5 14 3
FP 5 15 3
FQ 5 16 3
FR 5 17 3
FS 5 18 3
FT 5 19 3
FU 5 20 3
FV 5 21 3
FW 5 22 3
FX 5 23 3
FY 5 24 3
FZ 5 25 3
F[ 5 26 3
F\ 5 27 3
F] 5 28 3
F^ 5 29 3
F_ 5 30 3
F` 5 31 3
GA 6 0 3
GB 6 1 3
GC 6 2 3
GD 6 3 3
GE 6 4 3
GF 6 5 3
GG 6 6 3
GH 6 7 3
GI 6 8 3
GJ 6 9 3
GK 6 10 3
GL 6 11 3
GM 6 12 3
GN 6 13 3
GO 6 14 3
GP 6 15 3
GQ 6 16 3
GR 6 17 3
GS 6 18 3
GT 6 19 3
GU 6 20 3
GV 6 21 3
GW 6 22 3
GX 6 23 3
GY 6 24 3
GZ 6 25 3
G[ 6 26 3
G\ 6 27 3
G] 6 28 3
G^ 6 29 3
G_ 6 30 3
G` 6 31 3
HA 7 0 3
HB 7 1 3
HC 7 2 3
HD 7 3 3
HE 7 4 3
HF 7 5 3
HG 7 6 3
HH 7 7 3
HI 7 8 3
HJ 7 9 3
HK 7 10 3
HL 7 11 3
HM 7 12 3
HN 7 13 3
HO 7 14 3
HP 7 15 3
HQ 7 16 3
HR 7 17 3
HS 7 18 3
HT 7 19 3
HU 7 20 3
HV 7 21 3
HW 7 22 3
HX 7 23 3
HY 7 24 3
HZ 7 25 3
H[ 7 26 3
H\ 7 27 3
H] 7 28 3
H^ 7 29 3
H_ 7 30 3
H` 7 31 3
IA 8 0 3
IB 8 1 3
IC 8 2 3
ID 8 3 3
IE 8 4 3
IF 8 5 3
IG 8 6 3
IH 8 7 3
II 8 8 3
IJ 8 9 3
IK 8 10 3
IL 8 11 3
IM 8 12 3
IN 8 13 3
IO 8 14 3
IP 8 15 3
IQ 8 16 3
IR 8 17 3
IS 8 18 3
IT 8 19 3
IU 8 20 3
IV 8 21 3
IW 8 22 3
IX 8 23 3
IY 8 24 3
IZ 8 25 3
I[ 8 26 3
I\ 8 27 3
I] 8 28 3
I^ 8 29 3
I_ 8 30 3
I` 8 31 3
JA 9 0 3
JB 9 1 3
JC 9 2 3
JD 9 3 3
JE 9 4 3
JF 9 5 3
JG 9 6 3
JH 9 7 3
JI 9 8 3
JJ 9 9 3
JK 9 10 3
JL 9 11 3
JM 9 12 3
JN 9 13 3
JO 9 14 3
JP 9 15 3
JQ 9 16 3
JR 9 17 3
JS 9 18 3
JT 9 19 3
JU 9 20 3
JV 9 21 3
JW 9 22 3
JX 9 23 3
JY 9 24 3
JZ 9 25 3
J[ 9 26 3
J\ 9 27 3
J] 9 28 3
J^ 9 29 3
J_ 9 30 3
J` 9 31 3
KA 10 0 3
KB 10 1 3
KC 10 2 3
KD 10 3 3
KE 10 4 3
KF 10 5 3
KG 10 6 3
KH 10 7 3
KI 10 8 3
KJ 10 9 3
KK 10 10 3
KL 10 11 3
KM 10 12 3
KN 10 13 3
KO 10 14 3
KP 10 15 3
KQ 10 16 3
KR 10 17 3
KS 10 18 3
KT 10 19 3
KU 10 20 3
KV 10 21 3
KW 10 22 3
KX 10 23 3
KY 10 24 3
KZ 10 25 3
K[ 10 26 3
K\ 10 27 3
K] 10 28 3
K^ 10 29 3
K_ 10 30 3
K` 10 31 3
LA 11 0 3
LB 11 1 3
LC 11 2 3
LD 11 3 3
LE 11 4 3
LF 11 5 3
LG 11 6 3
LH 11 7 3
LI 11 8 3
LJ 11 9 3
LK 11 10 3
LL 11 11 3
LM 11 12 3
LN 11 13 3
LO 11 14 3
LP 11 15 3
LQ 11 16 3
LR 11 17 3
LS 11 18 3
LT 11 19 3
LU 11 20 3
LV 11 21 3
LW 11 22 3
LX 11 23 3
LY 11 24 3
LZ 11 25 3
L[ 11 26 3
L\ 11 27 3
L] 11 28 3
L^ 11 29 3
L_ 11 30 3
L` 11 31 3
MA 12 0 3
MB 12 1 3
MC 12 2 3
MD 12 3 3
ME 12 4 3
MF 12 5 3
MG 12 6 3
MH 12 7 3
MI 12 8 3
MJ 12 9 3
MK 12 10 3
ML 12 11 3
MM 12 12 3
MN 12 13 3
MO 12 14 3
MP 12 15 3
MQ 12 16 3
MR 12 17 3
MS 12 18 3
MT 12 19 3
MU 12 20 3
MV 12 21 3
MW 12 22 3
MX 12 23 3
MY 12 24 3
MZ 12 25 3
M[ 12 26 3
M\ 12 27 3
M] 12 28 3
M^ 12 29 3
M_ 12 30 3
M` 12 31 3
NA 13 0 3
NB 13 1 3
NC 13 2 3
ND 13 3 3
NE 13 4 3
NF 13 5 3
NG 13 6 3
NH 13 7 3
NI 13 8 3
NJ 13 9 3
NK 13 10 3
NL 13 11 3
NM 13 12 3
NN 13 13 3
NO 13 14 3
NP 13 15 3
NQ 13 16 3
NR 13 17 3
NS 13 18 3
NT 13 19 3
NU 13 20 3
NV 13 21 3
NW 13 22 3
NX 13 23 3
NY 13 24 3
NZ 13 25 3
N[ 13 26 3
N\ 13 27 3
N] 13 28 3
N^ 13 29 3
N_ 13 30 3
N` 13 31 3
OA 14 0 3
OB 14 1 3
OC 14 2 3
OD 14 3 3
OE 14 4 3
OF 14 5 3
OG 14 6 3
OH 14 7 3
OI 14 8 3
OJ 14 9 3
OK 14 10 3
OL 14 11 3
OM 14 12 3
ON 14 13 3
OO 14 14 3
OP 14 15 3
OQ 14 16 3
OR 14 17 3
OS 14 18 3
OT 14 19 3
OU 14 20 3
OV 14 21 3
OW 14 22 3
OX 14 23 3
OY 14 24 3
OZ 14 25 3
O[ 14 26 3
O\ 14 27 3
O] 14 28 3
O^ 14 29 3
O_ 14 30 3
O` 14 31 3
PA 15 0 3
PB 15 1 3
PC 15 2 3
PD 15 3 3
PE 15 4 3
PF 15 5 3
PG 15 6 3
PH 15 7 3
PI 15 8 3
PJ 15 9 3
PK 15 10 3
PL 15 11 3
PM 15 12 3
PN 15 13 3
PO 15 14 3
PP 15 15 3
PQ 15 16 3
PR 15 17 3
PS 15 18 3
PT 15 19 3
PU 15 20 3
PV 15 21 3
PW 15 22 3
PX 15 23 3
PY 15 24 3
PZ 15 25 3
P[ 15 26 3
P\ 15 27 3
P] 15 28 3
P^ 15 29 3
P_ 15 30 3
P` 15 31 3
QA 16 0 3
QB 16 1 3
QC 16 2 3
QD 16 3 3
QE 16 4 3
QF 16 5 3
QG 16 6 3
QH 16 7 3
QI 16 8 3
QJ 16 9 3
QK 16 10 3
QL 16 11 3
QM 16 12 3
QN 16 13 3
QO 16 14 3
QP 16 15 3
QQ 16 16 3
QR 16 17 3
QS 16 18 3
QT 16 19 3
QU 16 20 3
QV 16 21 3
QW 16 22 3
QX 16 23 3
QY 16 24 3
QZ 16 25 3
Q[ 16 26 3
Q\ 16 27 3
Q] 16 28 3
Q^ 16 29 3
Q_ 16 30 3
Q` 16 31 3
RA 17 0 3
RB 17 1 3
RC 17 2 3
RD 17 3 3
RE 17 4 3
RF 17 5 3
RG 17 6 3
RH 17 7 3
RI 17 8 3
RJ 17 9 3
RK 17 10 3
RL 17 11 3
RM 17 12 3
RN 17 13 3
RO 17 14 3
RP 17 15 3
RQ 17 16 3
RR 17 17 3
RS 17 18 3
RT 17 19 3
RU 17 20 3
RV 17 21 3
RW 17 22 3
RX 17 23 3
RY 17 24 3
RZ 17 25 3
R[ 17 26 3
R\ 17 27 3
R] 17 28 3
R^ 17 29 3
R_ 17 30 3
R` 17 31 3
SA 18 0 3
SB 18 1 3
SC 18 2 3
SD 18 3 3
SE 18 4 3
SF 18 5 3
SG 18 6 3
SH 18 7 3
SI 18 8 3
SJ 18 9 3
SK 18 10 3
SL 18 11 3
SM 18 12 3
SN 18 13 3
SO 18 14 3
SP 18 15 3
SQ 18 16 3
SR 18 17 3
SS 18 18 3
ST 18 19 3
SU 18 20 3
SV 18 21 3
SW 18 22 3
SX 18 23 3
SY 18 24 3
SZ 18 25 3
S[ 18 26 3
S\ 18 27 3
S] 18 28 3
S^ 18 29 3
S_ 18 30 3
S` 18 31 3
TA 19 0 3
TB 19 1 3
TC 19 2 3
TD 19 3 3
TE 19 4 3
TF 19 5 3
TG 19 6 3
TH 19 7 3
TI 19 8 3
TJ 19 9 3
TK 19 10 3
TL 19 11 3
TM 19 12 3
TN 19 13 3
TO 19 14 3
TP 19 15 3
TQ 19 16 3
TR 19 17 3
TS 19 18 3
TT 19 19 3
TU 19 20 3
TV 19 21 3
TW 19 22 3
TX 19 23 3
TY 19 24 3
TZ 19 25 3
T[ 19 26 3
T\ 19 27 3
T] 19 28 3
T^ 19 29 3
T_ 19 30 3
T` 19 31 3
UA 20 0 3
UB 20 1 3
UC 20 2 3
UD 20 3 3
UE 20 4 3
UF 20 5 3
UG 20 6 3
UH 20 7 3
UI 20 8 3
UJ 20 9 3
UK 20 10 3
UL 20 11 3
UM 20 12 3
UN 20 13 3
UO 20 14 3
UP 20 15 3
UQ 20 16 3
UR 20 17 3
US 20 18 3
UT 20 19 3
UU 20 20 3
UV 20 21 3
UW 20 22 3
UX 20 23 3
UY 20 24 3
UZ 20 25 3
U[ 20 26 3
U\ 20 27 3
U] 20 28 3
U^ 20 29 3
U_ 20 30 3
U` 20 31 3
VA 21 0 3
VB 21 1 3
VC 21 2 3
VD 21 3 3
VE 21 4 3
VF 21 5 3
VG 21 6 3
VH 21 7 3
VI 21 8 3
VJ 21 9 3
VK 21 10 3
VL 21 11 3
VM 21 12 3
VN 21 13 3
VO 21 14 3
VP 21 15 3
VQ 21 16 3
VR 21 17 3
VS 21 18 3
VT 21 19 3
VU 21 20 3
VV 21 21 3
VW 21 22 3
VX 21 23 3
VY 21 24 3
VZ 21 25 3
V[ 21 26 3
V\ 21 27 3
V] 21 28 3
V^ 21 29 3
V_ 21 30 3
V` 21 31 3
WA 22 0 3
WB 22 1 3
WC 22 2 3
WD 22 3 3
WE 22 4 3
WF 22 5 3
WG 22 6 3
WH 22 7 3
WI 22 8 3
WJ 22 9 3
WK 22 10 3
WL 22 11 3
WM 22 12 3
WN 22 13 3
WO 22 14 3
WP 22 15 3
WQ 22 16 3
WR 22 17 3
WS 22 18 3
WT 22 19 3
WU 22 20 3
WV 22 21 3
WW 22 22 3
WX 22 23 3
WY 22 24 3
WZ 22 25 3
W[ 22 26 3
W\ 22 27 3
W] 22 28 3
W^ 22 29 3
W_ 22 30 3
W` 22 31 3
XA 23 0 3
XB 23 1 3
XC 23 2 3
XD 23 3 3
XE 23 4 3
XF 23 5 3
XG 23 6 3
XH 23 7 3
XI 23 8 3
XJ 23 9 3
XK 23 10 3
XL 23 11 3
XM 23 12 3
XN 23 13 3
XO 23 14 3
XP 23 15 3
XQ 23 16 3
XR 23 17 3
XS 23 18 3
XT 23 19 3
XU 23 20 3
XV 23 21 3
XW 23 22 3
XX 23 23 3
XY 23 24 3
XZ 23 25 3
X[ 23 26 3
X\ 23 27 3
X] 23 28 3
X^ 23 29 3
X_ 23 30 3
X` 23 31 3
YA 24 0 3
YB 24 1 3
YC 24 2 3
YD 24 3 3
YE 24 4 3
YF 24 5 3
YG 24 6 3
YH 24 7 3
YI 24 8 3
YJ 24 9 3
YK 24 10 3
YL 24 11 3
YM 24 12 3
YN 24 13 3
YO 24 14 3
YP 24 15 3
YQ 24 16 3
YR 24 17 3
YS 24 18 3
YT 24 19 3
YU 24 20 3
YV 24 21 3
YW 24 22 3
YX 24 23 3
YY 24 24 3
YZ 24 25 3
Y[ 24 26 3
Y\ 24 27 3
Y] 24 28 3
Y^ 24 29 3
Y_ 24 30 3
Y` 24 31 3
ZA 25 0 3
ZB 25 1 3
ZC 25 2 3
ZD 25 3 3
ZE 25 4 3
ZF 25 5 3
ZG 25 6 3
ZH 25 7 3
ZI 25 8 3
ZJ 25 9 3
ZK 25 10 3
ZL 25 11 3
ZM 25 12 3
ZN 25 13 3
ZO 25 14 3
ZP 25 15 3
ZQ 25 16 3
ZR 25 17 3
ZS 25 18 3
ZT 25 19 3
ZU 25 20 3
ZV 25 21 3
ZW 25 22 3
ZX 25 23 3
ZY 25 24 3
ZZ 25 25 3
Z[ 25 26 3
Z\ 25 27 3
Z] 25 28 3
Z^ 25 29 3
Z_ 25 30 3
Z` 25 31 3
[A 26 0 3
[B 26 1 3
[C 26 2 3
[D 26 3 3
[E 26 4 3
[F 26 5 3
[G 26 6 3
[H 26 7 3
[I 26 8 3
[J 26 9 3
[K 26 10 3
[L 26 11 3
[M 26 12 3
[N 26 13 3
[O 26 14 3
[P 26 15 3
[Q 26 16 3
[R 26 17 3
[S 26 18 3
[T 26 19 3
[U 26 20 3
[V 26 21 3
[W 26 22 3
[X 26 23 3
[Y 26 24 3
[Z 26 25 3
[[ 26 26 3
[\ 26 27 3
[] 26 28 3
[^ 26 29 3
[_ 26 30 3
[` 26 31 3
\A 27 0 3
\B 27 1 3
\C 27 2 3
\D 27 3 3
\E 27 4 3
\F 27 5 3
\G 27 6 3
\H 27 7 3
\I 27 8 3
\J 27 9 3
\K 27 10 3
\L 27 11 3
\M 27 12 3
\N 27 13 3
\O 27 14 3
\P 27 15 3
\Q 27 16 3
\R 27 17 3
\S 27 18 3
\T 27 19 3
\U 27 20 3
\V 27 21 3
\W 27 22 3
\X 27 23 3
\Y 27 24 3
\Z 27 25 3
\[ 27 26 3
\\ 27 27 3
\] 27 28 3
\^ 27 29 3
\_ 27 30 3
\` 27 31 3
]A 28 0 3
]B 28 1 3
]C 28 2 3
]D 28 3 3
]E 28 4 3
]F 28 5 3
]G 28 6 3
]H 28 7 3
]I 28 8 3
]J 28 9 3
]K 28 10 3
]L 28 11 3
]M 28 12 3
]N 28 13 3
]O 28 14 3
]P 28 15 3
]Q 28 16 3
]R 28 17 3
]S 28 18 3
]T 28 19 3
]U 28 20 3
]V 28 21 3
]W 28 22 3
]X 28 23 3
]Y 28 24 3
]Z 28 25 3
][ 28 26 3
]\ 28 27 3
]] 28 28 3
]^ 28 29 3
]_ 28 30 3
]` 28 31 3
^A 29 0 3
^B 29 1 3
^C 29 2 3
^D 29 3 3
^E 29 4 3
^F 29 5 3
^G 29 6 3
^H 29 7 3
^I 29 8 3
^J 29 9 3
^K 29 10 3
^L 29 11 3
^M 29 12 3
^N 29 13 3
^O 29 14 3
^P 29 15 3
^Q 29 16 3
^R 29 17 3
^S 29 18 3
^T 29 19 3
^U 29 20 3
^V 29 21 3
^W 29 22 3
^X 29 23 3
^Y 29 24 3
^Z 29 25 3
^[ 29 26 3
^\ 29 27 3
^] 29 28 3
^^ 29 29 3
^_ 29 30 3
^` 29 31 3
_A 30 0 3
_B 30 1 3
_C 30 2 3
_D 30 3 3
_E 30 4 3
_F 30 5 3
_G 30 6 3
_H 30 7 3
_I 30 8 3
_J 30 9 3
_K 30 10 3
_L 30 11 3
_M 30 12 3
_N 30 13 3
_O 30 14 3
_P 30 15 3
_Q 30 16 3
_R 30 17 3
_S 30 18 3
_T 30 19 3
_U 30 20 3
_V 30 21 3
_W 30 22 3
_X 30 23 3
_Y 30 24 3
_Z 30 25 3
_[ 30 26 3
_\ 30 27 3
_] 30 28 3
_^ 30 29 3
__ 30 30 3
_` 30 31 3
`A 31 0 3
`B 31 1 3
`C 31 2 3
`D 31 3 3
`E 31 4 3
`F 31 5 3
`G 31 6 3
`H 31 7 3
`I 31 8 3
`J 31 9 3
`K 31 10 3
`L 31 11 3
`M 31 12 3
`N 31 13 3
`O 31 14 3
`P 31 15 3
`Q 31 16 3
`R 31 17 3
`S 31 18 3
`T 31 19 3
`U 31 20 3
`V 31 21 3
`W 31 22 3
`X 31 23 3
`Y 31 24 3
`Z 31 25 3
`[ 31 26 3
`\ 31 27 3
`] 31 28 3
`^ 31 29 3
`_ 31 30 3
`` 31 31 3
